/*--------------------------------*- C++ -*----------------------------------*\
| =========                 |                                                 |
| \\      /  F ield         | OpenFOAM: The Open Source CFD Toolbox           |
|  \\    /   O peration     | Version:  v1812                                 |
|   \\  /    A nd           | Web:      www.OpenFOAM.com                      |
|    \\/     M anipulation  |                                                 |
\*----------------------------------:-----------------------------------------*/
FoamFile
{
    version     2.0;
    format      ascii;
    class       volScalarField;
    object      p;
}
// * * * * * * * * * * * * * * * * * * * * * * * * * * * * * * * * * * * * * //

dimensions      [0 2 -2 0 0 0 0];

internalField   uniform 0;

boundaryField
{
    topPatch
    {
        type            uniformJumpAMI;
	patchType	cyclicAMI;
        jumpTable       constant 10;
    }

    wall
    {
        type            zeroGradient;
    }

    bottomPatch
    {
        type            uniformJumpAMI;
        patchType       cyclicAMI;
        jumpTable       constant 10;

    }

}

// ************************************************************************* //
