/*--------------------------------*- C++ -*----------------------------------*\
| =========                 |                                                 |
| \\      /  F ield         | OpenFOAM: The Open Source CFD Toolbox           |
|  \\    /   O peration     | Version:  v1912                                 |
|   \\  /    A nd           | Website:  www.openfoam.com                      |
|    \\/     M anipulation  |                                                 |
\*---------------------------------------------------------------------------*/
FoamFile
{
    version     2.0;
    format      ascii;
    class       extendedFeatureEdgeMesh;
    location    "constant/extendedFeatureEdgeMesh";
    object      beginCylinder.extendedFeatureEdgeMesh;
}
// * * * * * * * * * * * * * * * * * * * * * * * * * * * * * * * * * * * * * //

// points

52
(
(-0.600583 -4.94625 0)
(0.600583 -4.94625 0)
(0.600583 -4.94625 100)
(-0.600583 -4.94625 100)
(1.76685 -4.65879 0)
(1.76685 -4.65879 100)
(4.98258 0 0)
(4.83779 1.19241 0)
(4.83779 1.19241 100)
(4.98258 0 100)
(2.83043 -4.10058 0)
(2.83043 -4.10058 100)
(4.41185 2.31552 100)
(4.41185 2.31552 0)
(3.72951 -3.30406 100)
(3.72951 -3.30406 0)
(3.72951 3.30406 100)
(3.72951 3.30406 0)
(4.41185 -2.31552 0)
(4.41185 -2.31552 100)
(2.83043 4.10058 100)
(2.83043 4.10058 0)
(4.83779 -1.19241 100)
(4.83779 -1.19241 0)
(1.76685 4.65879 100)
(1.76685 4.65879 0)
(0.600583 4.94625 100)
(0.600583 4.94625 0)
(-0.600583 4.94625 100)
(-0.600583 4.94625 0)
(-1.76685 4.65879 100)
(-1.76685 4.65879 0)
(-2.83043 4.10058 100)
(-2.83043 4.10058 0)
(-3.72951 3.30406 100)
(-4.41185 2.31552 100)
(-3.72951 3.30406 0)
(-4.41185 2.31552 0)
(-4.83779 1.19241 0)
(-4.83779 1.19241 100)
(-4.98258 0 0)
(-4.98258 0 100)
(-4.83779 -1.19241 100)
(-4.83779 -1.19241 0)
(-4.41185 -2.31552 0)
(-4.41185 -2.31552 100)
(-3.72951 -3.30406 0)
(-3.72951 -3.30406 100)
(-2.83043 -4.10058 100)
(-2.83043 -4.10058 0)
(-1.76685 -4.65879 0)
(-1.76685 -4.65879 100)
)

// edges

52
(
(0 1)
(2 3)
(1 4)
(5 2)
(6 7)
(8 9)
(4 10)
(11 5)
(12 8)
(7 13)
(14 11)
(10 15)
(16 12)
(13 17)
(15 18)
(19 14)
(20 16)
(17 21)
(22 19)
(18 23)
(9 22)
(24 20)
(23 6)
(21 25)
(26 24)
(25 27)
(28 26)
(27 29)
(30 28)
(29 31)
(32 30)
(31 33)
(34 32)
(35 34)
(33 36)
(36 37)
(37 38)
(39 35)
(38 40)
(41 39)
(42 41)
(40 43)
(43 44)
(45 42)
(44 46)
(47 45)
(48 47)
(46 49)
(49 50)
(51 48)
(50 0)
(3 51)
)

// concaveStart mixedStart nonFeatureStart
0 0 0
// internalStart flatStart openStart multipleStart
52 52 52 52
// normals

84
(
(0 -1 0)
(0 0 -1)
(0 -1 0)
(0 0 1)
(0.239316 -0.970942 0)
(0 0 -1)
(0.239316 -0.970942 0)
(0 0 1)
(0.992709 0.120537 -0)
(0 0 -1)
(0.992709 0.120537 0)
(0 0 1)
(0.464723 -0.885456 0)
(0.464723 -0.885456 0)
(0.935016 0.354605 0)
(0 0 1)
(0.935016 0.354605 -0)
(0 0 -1)
(0.663123 -0.748511 0)
(0 0 1)
(0.663123 -0.748511 0)
(0 0 -1)
(0.822984 0.568065 0)
(0.822984 0.568065 -0)
(0.822984 -0.568065 0)
(0 0 -1)
(0.822984 -0.568065 0)
(0 0 1)
(0.663123 0.748511 0)
(0 0 1)
(0.663123 0.748511 -0)
(-0 -0 -1)
(0.935016 -0.354605 0)
(0.935016 -0.354605 0)
(0.992709 -0.120537 0)
(0.464723 0.885456 0)
(0.992709 -0.120537 0)
(0.464723 0.885456 -0)
(0.239316 0.970942 0)
(0 0 1)
(0.239316 0.970942 -0)
(-0 -0 -1)
(0 1 0)
(0 0 1)
(0 1 -0)
(-0 -0 -1)
(-0.239316 0.970942 0)
(0 0 1)
(-0.239316 0.970942 0)
(0 -0 -1)
(-0.464723 0.885456 0)
(0 0 1)
(-0.464723 0.885456 0)
(0 -0 -1)
(-0.663123 0.748511 0)
(-0.822984 0.568065 0)
(0 0 1)
(-0.663123 0.748511 0)
(-0.822984 0.568065 0)
(0 -0 -1)
(-0.935016 0.354605 0)
(0 -0 -1)
(-0.935016 0.354605 0)
(0 0 1)
(-0.992709 0.120537 0)
(-0.992709 0.120537 0)
(-0.992709 -0.120537 -0)
(0 0 1)
(-0.992709 -0.120537 0)
(0 0 -1)
(-0.935016 -0.354605 0)
(-0.935016 -0.354605 0)
(-0.822984 -0.568065 0)
(0 0 -1)
(-0.822984 -0.568065 0)
(0 0 1)
(-0.663123 -0.748511 -0)
(0 0 1)
(-0.663123 -0.748511 0)
(0 0 -1)
(-0.464723 -0.885456 0)
(-0.464723 -0.885456 0)
(-0.239316 -0.970942 0)
(-0.239316 -0.970942 0)
)

// normal volume types

84
(
0
0
0
0
0
0
0
0
0
0
0
0
0
0
0
0
0
0
0
0
0
0
0
0
0
0
0
0
0
0
0
0
0
0
0
0
0
0
0
0
0
0
0
0
0
0
0
0
0
0
0
0
0
0
0
0
0
0
0
0
0
0
0
0
0
0
0
0
0
0
0
0
0
0
0
0
0
0
0
0
0
0
0
0
)

// normalDirections

52
(
2(1 -1)
2(1 -1)
2(1 -1)
2(1 -1)
2(1 -1)
2(1 -1)
2(1 -1)
2(1 -1)
2(1 -1)
2(1 -1)
2(1 -1)
2(1 -1)
2(1 -1)
2(1 -1)
2(1 -1)
2(1 -1)
2(1 -1)
2(1 -1)
2(1 -1)
2(1 -1)
2(1 -1)
2(1 -1)
2(1 -1)
2(1 -1)
2(1 -1)
2(1 -1)
2(1 -1)
2(1 -1)
2(1 -1)
2(1 -1)
2(1 -1)
2(1 -1)
2(1 -1)
2(1 -1)
2(1 -1)
2(1 -1)
2(1 -1)
2(1 -1)
2(1 -1)
2(1 -1)
2(1 -1)
2(1 -1)
2(1 -1)
2(1 -1)
2(1 -1)
2(1 -1)
2(1 -1)
2(1 -1)
2(1 -1)
2(1 -1)
2(1 -1)
2(1 -1)
)

// edgeNormals

52
(
2(0 1)
2(2 3)
2(4 5)
2(6 7)
2(8 9)
2(10 11)
2(12 5)
2(13 7)
2(14 15)
2(16 17)
2(18 19)
2(20 21)
2(22 15)
2(23 17)
2(24 25)
2(26 27)
2(28 29)
2(30 31)
2(32 27)
2(33 25)
2(34 11)
2(35 29)
2(36 9)
2(37 31)
2(38 39)
2(40 41)
2(42 43)
2(44 45)
2(46 47)
2(48 49)
2(50 51)
2(52 53)
2(54 51)
2(55 56)
2(57 53)
2(58 59)
2(60 61)
2(62 63)
2(64 61)
2(65 63)
2(66 67)
2(68 69)
2(70 69)
2(71 67)
2(72 73)
2(74 75)
2(76 77)
2(78 79)
2(80 79)
2(81 77)
2(82 1)
2(83 3)
)

// featurePointNormals
0()
// featurePointEdges
0()
// regionEdges
0()


// ************************************************************************* //
