/*--------------------------------*- C++ -*----------------------------------*\
| =========                 |                                                 |
| \\      /  F ield         | OpenFOAM: The Open Source CFD Toolbox           |
|  \\    /   O peration     | Version:  v1906                                 |
|   \\  /    A nd           | Web:      www.OpenFOAM.com                      |
|    \\/     M anipulation  |                                                 |
\*---------------------------------------------------------------------------*/
FoamFile
{
    version     2.0;
    format      ascii;
    class       dictionary;
    object      topoSetDict;
}

// * * * * * * * * * * * * * * * * * * * * * * * * * * * * * * * * * * * * * //

actions
(
    {
        name    bottomPatch;
        type    faceSet;
        action  new;
        source  patchToFace;
        sourceInfo
	{
	  patch auto0;
	}

    }

     {
        name    wall;
        type    faceSet;
        action  new;
        source  patchToFace;
        sourceInfo
	{
	  patch auto1;
	}

    }

     {
        name    topPatch;
        type    faceSet;
        action  new;
        source  patchToFace;
        sourceInfo
	{
	  patch auto2;
	}

    }

    
    
);

// ************************************************************************* //
