/*--------------------------------*- C++ -*----------------------------------*\
| =========                 |                                                 |
| \\      /  F ield         | OpenFOAM: The Open Source CFD Toolbox           |
|  \\    /   O peration     | Version:  v1912                                 |
|   \\  /    A nd           | Website:  www.openfoam.com                      |
|    \\/     M anipulation  |                                                 |
\*---------------------------------------------------------------------------*/
FoamFile
{
    version     2.0;
    format      ascii;
    class       featureEdgeMesh;
    location    "constant/triSurface";
    object      fullheatExchg.eMesh;
}
// * * * * * * * * * * * * * * * * * * * * * * * * * * * * * * * * * * * * * //


// points:

939
(
(23.5488 0 14.9995)
(-0.407014 0 -14.0118)
(-2.00762 0 -27.7059)
(1.21554 0 -27.8937)
(-20.9591 0 -16.9275)
(-19.4021 0 -17.3937)
(11.3752 -250 -8.88569)
(11.1865 -250 -10.5)
(-18.5935 -250 17.4882)
(-20.1942 -250 17.2059)
(18.5935 -250 -17.4882)
(20.1942 -250 -17.2059)
(11.9311 -250 -7.35841)
(21.6865 -250 -16.5622)
(12.8242 -250 -6.00049)
(-23.5488 -250 -14.9995)
(-22.3666 -250 -16.1149)
(-24.442 -250 -13.6416)
(-16.971 -250 17.3937)
(22.9902 -250 -15.5916)
(-20.9591 -250 -16.9275)
(-24.9978 -250 -12.1143)
(14.0064 -250 -4.88514)
(-19.4021 -250 -17.3937)
(-25.1865 -250 -10.5)
(24.0349 -250 -14.3466)
(-17.7795 -250 -17.4882)
(-11.3752 -250 12.1143)
(-11.9311 -250 13.6416)
(-24.9978 -250 -8.88569)
(-11.1865 -250 10.5)
(-16.1789 -250 -17.2059)
(-24.442 -250 -7.35841)
(-12.8242 -250 14.9995)
(-14.0064 -250 16.1149)
(-15.414 -250 16.9275)
(24.7644 -250 -12.8941)
(-23.5488 -250 -6.00049)
(-14.6865 -250 -16.5622)
(-22.3666 -250 -4.88514)
(-13.3828 -250 -15.5916)
(-12.3381 -250 -14.3466)
(-11.6087 -250 -12.8941)
(25.1392 -250 -11.3127)
(12.3381 -250 6.65344)
(13.3828 -250 5.40838)
(-11.2339 -250 -11.3127)
(14.6865 -250 4.43782)
(15.414 -250 -4.07249)
(11.6087 -250 8.10586)
(16.1789 -250 3.79407)
(16.971 -250 -3.60635)
(11.2339 -250 9.68735)
(-11.2339 -250 -9.68735)
(18.5935 -250 -3.51184)
(17.7795 -250 3.51184)
(25.1392 -250 -9.68735)
(-24.0349 -250 6.65344)
(-22.9902 -250 5.40838)
(11.2339 -250 11.3127)
(-20.9591 -250 -4.07249)
(-21.6865 -250 4.43782)
(19.4021 -250 3.60635)
(20.1942 -250 -3.79407)
(-24.7644 -250 8.10586)
(-19.4021 -250 -3.60635)
(11.6087 -250 12.8941)
(-20.1942 -250 3.79407)
(21.6865 -250 -4.43782)
(20.9591 -250 4.07249)
(-25.1392 -250 9.68735)
(-17.7795 -250 -3.51184)
(-18.5935 -250 3.51184)
(12.3381 -250 14.3466)
(24.7644 -250 -8.10586)
(24.0349 -250 -6.65344)
(-25.1392 -250 11.3127)
(-16.971 -250 3.60635)
(-16.1789 -250 -3.79407)
(22.9902 -250 -5.40838)
(22.3666 -250 4.88514)
(13.3828 -250 15.5916)
(-24.7644 -250 12.8941)
(-15.414 -250 4.07249)
(-14.6865 -250 -4.43782)
(-11.6087 -250 -8.10586)
(14.6865 -250 16.5622)
(-12.3381 -250 -6.65344)
(-24.0349 -250 14.3466)
(16.1789 -250 17.2059)
(-13.3828 -250 -5.40838)
(23.5488 -250 6.00049)
(-22.9902 -250 15.5916)
(-14.0064 -250 4.88514)
(24.442 -250 7.35841)
(-12.8242 -250 6.00049)
(-21.6865 -250 16.5622)
(24.9978 -250 8.88569)
(-11.9311 -250 7.35841)
(25.1865 -250 10.5)
(24.9978 -250 12.1143)
(24.442 -250 13.6416)
(23.5488 -250 14.9995)
(17.7795 -250 17.4882)
(12.8242 -250 -14.9995)
(14.0064 -250 -16.1149)
(22.3666 -250 16.1149)
(11.9311 -250 -13.6416)
(-11.3752 -250 8.88569)
(20.9591 -250 16.9275)
(19.4021 -250 17.3937)
(15.414 -250 -16.9275)
(11.3752 -250 -12.1143)
(16.971 -250 -17.3937)
(19.4021 0 17.3937)
(20.9591 0 16.9275)
(12.3381 0 6.65344)
(11.6087 0 8.10586)
(22.3666 0 16.1149)
(-16.1789 0 -17.2059)
(-17.7795 0 -17.4882)
(13.3828 0 5.40838)
(-24.0349 0 14.3466)
(-22.9902 0 15.5916)
(-21.6865 0 16.5622)
(-24.7644 0 12.8941)
(-20.1942 0 17.2059)
(-25.1392 0 11.3127)
(14.6865 0 4.43782)
(-18.5935 0 17.4882)
(-11.2339 0 -11.3127)
(-11.6087 0 -12.8941)
(-25.1392 0 9.68735)
(-5.84842 0 -17.1534)
(-4.80369 0 -15.9084)
(-12.3381 0 -14.3466)
(-16.971 0 17.3937)
(-3.5 0 -14.9378)
(-24.7644 0 8.10586)
(-13.3828 0 -15.5916)
(-6.57785 0 -18.6059)
(-15.414 0 16.9275)
(-2.00762 0 -14.2941)
(24.442 0 13.6416)
(-24.0349 0 6.65344)
(-14.6865 0 -16.5622)
(-6.95267 0 -20.1873)
(-22.9902 0 5.40838)
(-6.95267 0 -21.8127)
(-14.0064 0 16.1149)
(1.21554 0 -14.1063)
(-6.57785 0 -23.3941)
(-12.8242 0 14.9995)
(2.77256 0 -14.5725)
(-11.9311 0 13.6416)
(24.9978 0 12.1143)
(25.1865 0 10.5)
(-11.3752 0 12.1143)
(12.8242 0 -6.00049)
(14.0064 0 -4.88514)
(-5.84842 0 -24.8466)
(11.9311 0 -7.35841)
(-11.1865 0 10.5)
(16.1789 0 3.79407)
(15.414 0 -4.07249)
(4.18011 0 -15.3851)
(11.3752 0 -8.88569)
(16.971 0 -3.60635)
(17.7795 0 3.51184)
(11.1865 0 -10.5)
(18.5935 0 -3.51184)
(-21.6865 0 4.43782)
(-23.5488 0 -6.00049)
(-22.3666 0 -4.88514)
(19.4021 0 3.60635)
(24.9978 0 8.88569)
(-4.80369 0 -26.0916)
(11.3752 0 -12.1143)
(5.36231 0 -16.5005)
(-24.442 0 -7.35841)
(20.1942 0 -3.79407)
(-20.9591 0 -4.07249)
(-20.1942 0 3.79407)
(20.9591 0 4.07249)
(11.9311 0 -13.6416)
(6.25543 0 -17.8584)
(-24.9978 0 -8.88569)
(-18.5935 0 3.51184)
(-19.4021 0 -3.60635)
(21.6865 0 -4.43782)
(22.3666 0 4.88514)
(24.442 0 7.35841)
(-3.5 0 -27.0622)
(-25.1865 0 -10.5)
(6.81131 0 -19.3857)
(12.8242 0 -14.9995)
(-16.971 0 3.60635)
(-17.7795 0 -3.51184)
(22.9902 0 -5.40838)
(-24.9978 0 -12.1143)
(-16.1789 0 -3.79407)
(7 0 -21)
(14.0064 0 -16.1149)
(-15.414 0 4.07249)
(23.5488 0 6.00049)
(-24.442 0 -13.6416)
(-0.407014 0 -27.9882)
(-14.0064 0 4.88514)
(6.81131 0 -22.6143)
(-14.6865 0 -4.43782)
(15.414 0 -16.9275)
(-11.3752 0 8.88569)
(-11.9311 0 7.35841)
(-12.8242 0 6.00049)
(-23.5488 0 -14.9995)
(24.0349 0 -6.65344)
(2.77256 0 -27.4275)
(-22.3666 0 -16.1149)
(24.7644 0 -8.10586)
(25.1392 0 -9.68735)
(4.18011 0 -26.6149)
(-13.3828 0 -5.40838)
(25.1392 0 -11.3127)
(6.25543 0 -24.1416)
(5.36231 0 -25.4995)
(-12.3381 0 -6.65344)
(24.7644 0 -12.8941)
(24.0349 0 -14.3466)
(16.971 0 -17.3937)
(22.9902 0 -15.5916)
(21.6865 0 -16.5622)
(12.3381 0 14.3466)
(13.3828 0 15.5916)
(18.5935 0 -17.4882)
(20.1942 0 -17.2059)
(14.6865 0 16.5622)
(-11.6087 0 -8.10586)
(11.6087 0 12.8941)
(16.1789 0 17.2059)
(11.2339 0 11.3127)
(17.7795 0 17.4882)
(-11.2339 0 -9.68735)
(11.2339 0 9.68735)
(12.3381 0 6.65344)
(13.3828 0 5.40838)
(13.3828 -250 5.40838)
(12.3381 -250 6.65344)
(11.6087 0 8.10586)
(11.6087 -250 8.10586)
(16.1789 0 17.2059)
(14.6865 0 16.5622)
(14.6865 -250 16.5622)
(16.1789 -250 17.2059)
(11.2339 0 9.68735)
(11.2339 -250 9.68735)
(17.7795 -250 17.4882)
(17.7795 0 17.4882)
(11.2339 0 11.3127)
(11.2339 -250 11.3127)
(19.4021 -250 17.3937)
(20.9591 -250 16.9275)
(19.4021 0 17.3937)
(11.6087 0 12.8941)
(11.6087 -250 12.8941)
(22.3666 -250 16.1149)
(20.9591 0 16.9275)
(12.3381 -250 14.3466)
(12.3381 0 14.3466)
(22.3666 0 16.1149)
(13.3828 -250 15.5916)
(13.3828 0 15.5916)
(23.5488 -250 14.9995)
(24.442 -250 13.6416)
(24.442 0 13.6416)
(24.9978 -250 12.1143)
(24.9978 0 12.1143)
(25.1865 -250 10.5)
(25.1865 0 10.5)
(24.9978 -250 8.88569)
(24.9978 0 8.88569)
(24.442 0 7.35841)
(24.442 -250 7.35841)
(23.5488 0 6.00049)
(23.5488 -250 6.00049)
(22.3666 0 4.88514)
(22.3666 -250 4.88514)
(20.9591 0 4.07249)
(20.9591 -250 4.07249)
(19.4021 0 3.60635)
(19.4021 -250 3.60635)
(17.7795 0 3.51184)
(17.7795 -250 3.51184)
(16.1789 0 3.79407)
(16.1789 -250 3.79407)
(14.6865 0 4.43782)
(14.6865 -250 4.43782)
(11.9311 0 -7.35841)
(11.3752 0 -8.88569)
(11.3752 -250 -8.88569)
(11.9311 -250 -7.35841)
(12.8242 0 -6.00049)
(12.8242 -250 -6.00049)
(22.9902 0 -5.40838)
(21.6865 0 -4.43782)
(21.6865 -250 -4.43782)
(22.9902 -250 -5.40838)
(14.0064 0 -4.88514)
(14.0064 -250 -4.88514)
(24.0349 -250 -6.65344)
(24.0349 0 -6.65344)
(15.414 0 -4.07249)
(15.414 -250 -4.07249)
(24.7644 -250 -8.10586)
(25.1392 -250 -9.68735)
(24.7644 0 -8.10586)
(16.971 0 -3.60635)
(16.971 -250 -3.60635)
(25.1392 -250 -11.3127)
(25.1392 0 -9.68735)
(18.5935 -250 -3.51184)
(18.5935 0 -3.51184)
(25.1392 0 -11.3127)
(20.1942 -250 -3.79407)
(20.1942 0 -3.79407)
(24.7644 -250 -12.8941)
(24.7644 0 -12.8941)
(24.0349 -250 -14.3466)
(24.0349 0 -14.3466)
(22.9902 -250 -15.5916)
(22.9902 0 -15.5916)
(21.6865 -250 -16.5622)
(21.6865 0 -16.5622)
(20.1942 -250 -17.2059)
(20.1942 0 -17.2059)
(18.5935 0 -17.4882)
(18.5935 -250 -17.4882)
(16.971 0 -17.3937)
(16.971 -250 -17.3937)
(15.414 0 -16.9275)
(15.414 -250 -16.9275)
(14.0064 0 -16.1149)
(14.0064 -250 -16.1149)
(12.8242 0 -14.9995)
(12.8242 -250 -14.9995)
(11.9311 0 -13.6416)
(11.9311 -250 -13.6416)
(11.3752 0 -12.1143)
(11.3752 -250 -12.1143)
(11.1865 0 -10.5)
(11.1865 -250 -10.5)
(-11.9311 0 7.35841)
(-11.3752 0 8.88569)
(-11.3752 -250 8.88569)
(-11.9311 -250 7.35841)
(-21.6865 -250 4.43782)
(-22.9902 -250 5.40838)
(-12.8242 0 6.00049)
(-12.8242 -250 6.00049)
(-24.0349 -250 6.65344)
(-22.9902 0 5.40838)
(-21.6865 0 4.43782)
(-14.0064 0 4.88514)
(-14.0064 -250 4.88514)
(-24.7644 -250 8.10586)
(-24.0349 0 6.65344)
(-15.414 0 4.07249)
(-15.414 -250 4.07249)
(-25.1392 -250 9.68735)
(-24.7644 0 8.10586)
(-16.971 0 3.60635)
(-16.971 -250 3.60635)
(-25.1392 0 9.68735)
(-18.5935 -250 3.51184)
(-18.5935 0 3.51184)
(-25.1392 -250 11.3127)
(-24.7644 -250 12.8941)
(-25.1392 0 11.3127)
(-20.1942 -250 3.79407)
(-20.1942 0 3.79407)
(-24.7644 0 12.8941)
(-24.0349 -250 14.3466)
(-24.0349 0 14.3466)
(-22.9902 -250 15.5916)
(-22.9902 0 15.5916)
(-21.6865 -250 16.5622)
(-21.6865 0 16.5622)
(-20.1942 -250 17.2059)
(-20.1942 0 17.2059)
(-18.5935 0 17.4882)
(-18.5935 -250 17.4882)
(-16.971 0 17.3937)
(-16.971 -250 17.3937)
(-15.414 0 16.9275)
(-15.414 -250 16.9275)
(-14.0064 0 16.1149)
(-14.0064 -250 16.1149)
(-12.8242 0 14.9995)
(-12.8242 -250 14.9995)
(-11.9311 0 13.6416)
(-11.9311 -250 13.6416)
(-11.3752 0 12.1143)
(-11.3752 -250 12.1143)
(-11.1865 0 10.5)
(-11.1865 -250 10.5)
(-12.3381 0 -6.65344)
(-13.3828 0 -5.40838)
(-13.3828 -250 -5.40838)
(-12.3381 -250 -6.65344)
(-11.6087 0 -8.10586)
(-11.6087 -250 -8.10586)
(-16.1789 0 -17.2059)
(-14.6865 0 -16.5622)
(-14.6865 -250 -16.5622)
(-16.1789 -250 -17.2059)
(-11.2339 0 -9.68735)
(-11.2339 -250 -9.68735)
(-17.7795 -250 -17.4882)
(-19.4021 -250 -17.3937)
(-17.7795 0 -17.4882)
(-11.2339 0 -11.3127)
(-11.2339 -250 -11.3127)
(-20.9591 -250 -16.9275)
(-11.6087 0 -12.8941)
(-11.6087 -250 -12.8941)
(-12.3381 -250 -14.3466)
(-12.3381 0 -14.3466)
(-22.3666 -250 -16.1149)
(-23.5488 -250 -14.9995)
(-22.3666 0 -16.1149)
(-13.3828 -250 -15.5916)
(-13.3828 0 -15.5916)
(-23.5488 0 -14.9995)
(-24.442 -250 -13.6416)
(-24.442 0 -13.6416)
(-24.9978 -250 -12.1143)
(-24.9978 0 -12.1143)
(-25.1865 -250 -10.5)
(-25.1865 0 -10.5)
(-24.9978 -250 -8.88569)
(-24.9978 0 -8.88569)
(-24.442 0 -7.35841)
(-24.442 -250 -7.35841)
(-23.5488 0 -6.00049)
(-23.5488 -250 -6.00049)
(-22.3666 0 -4.88514)
(-22.3666 -250 -4.88514)
(-20.9591 0 -4.07249)
(-20.9591 -250 -4.07249)
(-19.4021 0 -3.60635)
(-19.4021 -250 -3.60635)
(-17.7795 0 -3.51184)
(-17.7795 -250 -3.51184)
(-16.1789 0 -3.79407)
(-16.1789 -250 -3.79407)
(-14.6865 0 -4.43782)
(-14.6865 -250 -4.43782)
(-2.00762 0 -14.2941)
(1.21554 0 -14.1063)
(6.81131 0 -22.6143)
(7 0 -21)
(2.77256 0 -14.5725)
(6.25543 0 -24.1416)
(4.18011 0 -15.3851)
(5.36231 0 -25.4995)
(5.36231 0 -16.5005)
(4.18011 0 -26.6149)
(6.25543 0 -17.8584)
(2.77256 0 -27.4275)
(6.81131 0 -19.3857)
(-0.407014 0 -27.9882)
(-3.5 0 -27.0622)
(-4.80369 0 -26.0916)
(-5.84842 0 -24.8466)
(-6.57785 0 -23.3941)
(-6.95267 0 -21.8127)
(-6.95267 0 -20.1873)
(-6.57785 0 -18.6059)
(-5.84842 0 -17.1534)
(-4.80369 0 -15.9084)
(-3.5 0 -14.9378)
(7.27691 -250 -34.2352)
(10.8156 -250 -33.287)
(3.6585 -250 -34.8083)
(-23.4196 -250 26.0101)
(-26.0101 -250 23.4196)
(-28.3156 -250 20.5725)
(0 -250 -35)
(-3.6585 -250 -34.8083)
(-30.3109 -250 17.5)
(-31.9741 -250 14.2358)
(-3.6585 -250 34.8083)
(-7.27691 -250 34.2352)
(34.8083 -250 3.6585)
(34.2352 -250 7.27691)
(33.287 -250 10.8156)
(31.9741 -250 14.2358)
(0 -250 35)
(-10.8156 -250 33.287)
(-14.2358 -250 31.9741)
(-7.27691 -250 -34.2352)
(-10.8156 -250 -33.287)
(30.3109 -250 17.5)
(28.3156 -250 20.5725)
(3.6585 -250 34.8083)
(-33.287 -250 10.8156)
(-34.2352 -250 7.27691)
(26.0101 -250 23.4196)
(23.4196 -250 26.0101)
(-14.2358 -250 -31.9741)
(-17.5 -250 -30.3109)
(-34.8083 -250 3.6585)
(20.5725 -250 28.3156)
(17.5 -250 30.3109)
(-20.5725 -250 -28.3156)
(-23.4196 -250 -26.0101)
(34.2352 -250 -7.27691)
(34.8083 -250 -3.6585)
(14.2358 -250 31.9741)
(10.8156 -250 33.287)
(-26.0101 -250 -23.4196)
(-28.3156 -250 -20.5725)
(-30.3109 -250 -17.5)
(-31.9741 -250 -14.2358)
(33.287 -250 -10.8156)
(31.9741 -250 -14.2358)
(7.27691 -250 34.2352)
(-33.287 -250 -10.8156)
(-34.2352 -250 -7.27691)
(-34.8083 -250 -3.6585)
(35 -250 0)
(30.3109 -250 -17.5)
(28.3156 -250 -20.5725)
(-35 -250 0)
(26.0101 -250 -23.4196)
(23.4196 -250 -26.0101)
(20.5725 -250 -28.3156)
(17.5 -250 -30.3109)
(-17.5 -250 30.3109)
(14.2358 -250 -31.9741)
(-20.5725 -250 28.3156)
(-26.295 -318.728 15.4421)
(-25.3404 -318.752 17.1542)
(-7.94827 -324.543 11.6525)
(-8.20781 -324.751 9.72061)
(-24.0868 -318.892 18.6548)
(-8.82679 -324.846 7.86293)
(-22.5824 -319.143 19.8863)
(-9.78141 -324.822 6.15089)
(-20.8851 -319.496 20.8014)
(-11.035 -324.682 4.65027)
(-19.06 -319.937 21.3649)
(-12.5394 -324.431 3.41875)
(-17.1773 -320.449 21.5552)
(-15.3093 -321.013 21.3649)
(-14.2367 -324.078 2.50364)
(-16.0618 -323.637 1.94012)
(-13.5279 -321.606 20.8014)
(-17.9445 -323.125 1.74985)
(-11.9014 -322.206 19.8863)
(-10.4925 -322.79 18.6548)
(-19.8125 -322.561 1.94012)
(-21.5939 -321.968 2.50364)
(-9.35516 -323.336 17.1542)
(-23.2203 -321.368 3.41875)
(-8.53318 -323.822 15.4421)
(-24.6293 -320.784 4.65027)
(-8.05813 -324.229 13.5844)
(-25.7666 -320.238 6.15089)
(-26.5886 -319.752 7.86293)
(-27.0636 -319.345 9.72061)
(-27.1735 -319.031 11.6525)
(-26.914 -318.823 13.5844)
(10.8156 0 -33.287)
(7.27691 0 -34.2352)
(3.6585 0 -34.8083)
(-26.0101 0 23.4196)
(-23.4196 0 26.0101)
(-28.3156 0 20.5725)
(-14.2358 0 -31.9741)
(-17.5 0 -30.3109)
(-20.5725 0 -28.3156)
(-10.8156 0 -33.287)
(0 0 -35)
(-3.6585 0 -34.8083)
(-30.3109 0 17.5)
(-31.9741 0 14.2358)
(-7.27691 0 -34.2352)
(34.2352 0 7.27691)
(34.8083 0 3.6585)
(33.287 0 10.8156)
(31.9741 0 14.2358)
(-33.287 0 10.8156)
(-34.2352 0 7.27691)
(30.3109 0 17.5)
(28.3156 0 20.5725)
(26.0101 0 23.4196)
(23.4196 0 26.0101)
(-34.8083 0 3.6585)
(20.5725 0 28.3156)
(17.5 0 30.3109)
(-23.4196 0 -26.0101)
(34.8083 0 -3.6585)
(34.2352 0 -7.27691)
(14.2358 0 31.9741)
(10.8156 0 33.287)
(-26.0101 0 -23.4196)
(-28.3156 0 -20.5725)
(-30.3109 0 -17.5)
(-31.9741 0 -14.2358)
(-33.287 0 -10.8156)
(-34.2352 0 -7.27691)
(33.287 0 -10.8156)
(31.9741 0 -14.2358)
(-34.8083 0 -3.6585)
(35 0 0)
(7.27691 0 34.2352)
(3.6585 0 34.8083)
(-35 0 0)
(30.3109 0 -17.5)
(28.3156 0 -20.5725)
(0 0 35)
(-3.6585 0 34.8083)
(26.0101 0 -23.4196)
(23.4196 0 -26.0101)
(-7.27691 0 34.2352)
(-10.8156 0 33.287)
(20.5725 0 -28.3156)
(17.5 0 -30.3109)
(-14.2358 0 31.9741)
(-17.5 0 30.3109)
(14.2358 0 -31.9741)
(-20.5725 0 28.3156)
(-44.3162 61.0885 -16.1936)
(-43.1337 61.5277 -17.6942)
(-28.8418 70.9155 -10.692)
(-29.144 71.0545 -8.76005)
(-41.7349 62.1355 -18.9257)
(-29.7673 70.9961 -6.90237)
(-40.1733 62.8885 -19.8408)
(-30.6879 70.7424 -5.19033)
(-38.5091 63.7579 -20.4044)
(-31.8704 70.3033 -3.68971)
(-36.8062 64.7102 -20.5946)
(-33.2693 69.6955 -2.45819)
(-35.13 65.7088 -20.4044)
(-33.545 66.7154 -19.8408)
(-34.8308 68.9424 -1.54308)
(-32.1121 67.6912 -18.9257)
(-36.495 68.073 -0.979562)
(-30.8863 68.5988 -17.6942)
(-38.1979 67.1208 -0.789285)
(-29.9147 69.4032 -16.1936)
(-39.8741 66.1221 -0.979562)
(-29.2347 70.0736 -14.4816)
(-41.4591 65.1156 -1.54308)
(-28.8725 70.5843 -12.6239)
(-42.892 64.1398 -2.45819)
(-44.1178 63.2322 -3.68971)
(-45.0894 62.4277 -5.19033)
(-45.7694 61.7573 -6.90237)
(-46.1317 61.2467 -8.76005)
(-46.1623 60.9155 -10.692)
(-45.8602 60.7764 -12.6239)
(-45.2368 60.8348 -14.4816)
(-15.1444 -279.973 9.86163)
(-14.4036 -279.882 11.1631)
(-13.4818 -279.847 12.3452)
(-6.95754 -284.073 -3.94941)
(-8.41547 -283.761 -3.79192)
(-9.82711 -283.418 -3.41755)
(-11.1608 -283.052 -2.83385)
(-15.6871 -280.119 8.4696)
(-16.0187 -280.317 7.01799)
(-13.4751 -282.284 -1.09244)
(-14.4024 -281.899 0.026919)
(-16.131 -280.563 5.53957)
(-16.0207 -280.851 4.06801)
(0.978625 -282.545 12.8398)
(1.89951 -282.927 11.7142)
(2.63618 -283.297 10.4565)
(-2.65642 -281.42 15.1889)
(-1.326 -281.783 14.5964)
(-5.52299 -280.77 15.7396)
(-4.06596 -281.08 15.5725)
(-6.99519 -280.496 15.6871)
(-1.30677 -284.891 -2.4253)
(-2.62909 -284.762 -3.11654)
(-9.85621 -280.08 14.9347)
(-8.4502 -280.264 15.4168)
(-12.4 -279.869 13.3821)
(-11.1825 -279.947 14.2516)
(-4.03228 -284.579 -3.60749)
(-5.48569 -284.348 -3.88728)
(-12.3861 -282.671 -2.05315)
(-15.1465 -281.527 1.27962)
(3.17141 -283.648 9.09531)
(3.49287 -283.972 7.6621)
(-15.6901 -281.175 2.63706)
(3.58293 -284.161 6.7215)
(3.58153 -284.334 5.77376)
(-0.104943 -282.161 13.8077)
(3.28915 -284.635 3.82482)
(2.61911 -284.847 1.96107)
(1.89695 -284.942 0.680863)
(0.981671 -284.983 -0.505884)
(-0.094255 -284.966 -1.54878)
(4.68391 -250 -5.20201)
(5.66312 -250 -4.1145)
(-3.5 -250 6.06218)
(-4.68391 -250 5.20201)
(6.39482 -250 -2.84716)
(6.84703 -250 -1.45538)
(7 -250 0)
(-5.36231 -250 16.5005)
(-4.18011 -250 15.3851)
(-6.25543 -250 17.8584)
(-2.16312 -250 6.6574)
(-2.77256 -250 14.5725)
(-5.84842 -250 -24.8466)
(-4.80369 -250 -26.0916)
(-6.81131 -250 19.3857)
(-3.5 -250 -27.0622)
(-6.57785 -250 -23.3941)
(-2.00762 -250 -27.7059)
(-0.731699 -250 6.96165)
(-1.21554 -250 14.1063)
(-6.95267 -250 -21.8127)
(-7 -250 21)
(-0.407014 -250 -27.9882)
(0.407014 -250 14.0118)
(0.731699 -250 6.96165)
(-6.95267 -250 -20.1873)
(-6.81131 -250 22.6143)
(2.00762 -250 14.2941)
(1.21554 -250 -27.8937)
(2.16312 -250 6.6574)
(-6.57785 -250 -18.6059)
(2.77256 -250 -27.4275)
(-5.84842 -250 -17.1534)
(-6.25543 -250 24.1416)
(3.5 -250 14.9378)
(3.5 -250 6.06218)
(4.18011 -250 -26.6149)
(6.84703 -250 1.45538)
(6.39482 -250 2.84716)
(5.66312 -250 4.1145)
(-4.80369 -250 -15.9084)
(5.36231 -250 -25.4995)
(4.68391 -250 5.20201)
(-3.5 -250 -14.9378)
(6.25543 -250 -24.1416)
(-5.36231 -250 25.4995)
(-4.18011 -250 26.6149)
(4.80369 -250 15.9084)
(5.84842 -250 17.1534)
(6.81131 -250 -22.6143)
(6.57785 -250 18.6059)
(-2.77256 -250 27.4275)
(6.95267 -250 20.1873)
(-1.21554 -250 27.8937)
(6.95267 -250 21.8127)
(-5.66312 -250 -4.1145)
(-4.68391 -250 -5.20201)
(-3.5 -250 -6.06218)
(-6.39482 -250 -2.84716)
(0.407014 -250 27.9882)
(-2.00762 -250 -14.2941)
(-2.16312 -250 -6.6574)
(-6.84703 -250 -1.45538)
(-0.407014 -250 -14.0118)
(-0.731699 -250 -6.96165)
(-7 -250 0)
(1.21554 -250 -14.1063)
(2.00762 -250 27.7059)
(3.5 -250 27.0622)
(0.731699 -250 -6.96165)
(-6.84703 -250 1.45538)
(4.80369 -250 26.0916)
(2.77256 -250 -14.5725)
(2.16312 -250 -6.6574)
(-6.39482 -250 2.84716)
(5.84842 -250 24.8466)
(4.18011 -250 -15.3851)
(6.57785 -250 23.3941)
(3.5 -250 -6.06218)
(6.81131 -250 -19.3857)
(6.25543 -250 -17.8584)
(7 -250 -21)
(5.36231 -250 -16.5005)
(-5.66312 -250 4.1145)
(-7.49061 33.5373 -6.64386)
(-7.45629 33.8747 -4.68089)
(-10.522 33.2997 2.3279)
(-11.9621 32.6977 3.57322)
(-7.8703 33.0195 -8.53055)
(-13.395 32.0334 4.40894)
(-15.1 31.1771 4.998)
(-8.58208 32.3405 -10.2684)
(-12.3644 29.6374 -13.9192)
(-10.8744 30.6153 -13.0172)
(-16.8484 30.2339 5.20042)
(-18.3833 29.3524 5.04871)
(-20.0241 28.3493 4.51133)
(-21.512 27.372 3.60667)
(-19.1767 25.8675 -13.7158)
(-17.4817 26.711 -14.3495)
(-15.7348 27.6458 -14.5987)
(-22.6585 26.5562 2.52254)
(-23.7022 25.732 1.03325)
(-24.0347 24.0181 -8.39451)
(-23.1051 24.2531 -10.146)
(-24.8614 24.5019 -2.56245)
(-24.9306 24.145 -4.52562)
(-24.6514 23.9816 -6.49583)
(-9.30779 33.7301 0.802389)
(-9.597 31.5283 -11.7841)
(-14.0057 28.6346 -14.4532)
(-24.4464 25.038 -0.684557)
(-20.7533 25.1485 -12.7223)
(-21.8998 24.6773 -11.6804)
(-8.41842 33.9624 -0.826816)
(-7.76957 34.0186 -2.71421)
(4.68391 0 5.20201)
(5.66312 0 4.1145)
(6.39482 0 2.84716)
(6.84703 0 1.45538)
(7 0 0)
(-2.16312 0 -6.6574)
(-3.5 0 -6.06218)
(-0.731699 0 -6.96165)
(-5.36231 0 25.4995)
(-4.18011 0 26.6149)
(-6.25543 0 24.1416)
(-2.77256 0 27.4275)
(0.731699 0 -6.96165)
(-6.81131 0 22.6143)
(-1.21554 0 27.8937)
(2.16312 0 -6.6574)
(-7 0 21)
(0.407014 0 27.9882)
(-6.81131 0 19.3857)
(2.00762 0 27.7059)
(3.5 0 -6.06218)
(-6.25543 0 17.8584)
(3.5 0 27.0622)
(6.84703 0 -1.45538)
(6.39482 0 -2.84716)
(-5.36231 0 16.5005)
(4.80369 0 26.0916)
(5.66312 0 -4.1145)
(-4.18011 0 15.3851)
(4.68391 0 -5.20201)
(5.84842 0 24.8466)
(6.57785 0 23.3941)
(6.95267 0 21.8127)
(-5.66312 0 4.1145)
(-4.68391 0 5.20201)
(-2.77256 0 14.5725)
(-3.5 0 6.06218)
(-6.39482 0 2.84716)
(-1.21554 0 14.1063)
(-2.16312 0 6.6574)
(-6.84703 0 1.45538)
(0.407014 0 14.0118)
(-0.731699 0 6.96165)
(-7 0 0)
(2.00762 0 14.2941)
(0.731699 0 6.96165)
(-6.84703 0 -1.45538)
(3.5 0 14.9378)
(2.16312 0 6.6574)
(-6.39482 0 -2.84716)
(3.5 0 6.06218)
(6.95267 0 20.1873)
(6.57785 0 18.6059)
(5.84842 0 17.1534)
(-5.66312 0 -4.1145)
(4.80369 0 15.9084)
(-4.68391 0 -5.20201)
(-0.086184 -250 0)
(-0.084301 -250 0.017919)
(-0.078733 -250 0.035054)
(-0.069724 -250 0.050658)
(-0.057668 -250 0.064047)
(-0.043092 -250 0.074638)
(-0.026632 -250 0.081966)
(-0.009009 -250 0.085712)
(0.009009 -250 0.085712)
(0.026632 -250 0.081966)
(0.043092 -250 0.074638)
(0.057668 -250 0.064047)
(0.069724 -250 0.050658)
(0.078733 -250 0.035054)
(0.084301 -250 0.017919)
(0.086184 -250 0)
(0.084301 -250 -0.017919)
(0.078733 -250 -0.035054)
(0.069724 -250 -0.050658)
(0.057668 -250 -0.064047)
(0.043092 -250 -0.074638)
(0.026632 -250 -0.081966)
(0.009009 -250 -0.085712)
(-0.009009 -250 -0.085712)
(-0.026632 -250 -0.081966)
(-0.043092 -250 -0.074638)
(-0.057668 -250 -0.064047)
(-0.069724 -250 -0.050658)
(-0.078733 -250 -0.035054)
(-0.084301 -250 -0.017919)
(0.078733 0 -0.035054)
(0.069724 0 -0.050658)
(0.057668 0 -0.064047)
(0.043092 0 -0.074638)
(-0.086184 0 0)
(-0.084301 0 0.017919)
(0.026632 0 -0.081966)
(-0.078733 0 0.035054)
(0.009009 0 -0.085712)
(-0.069724 0 0.050658)
(-0.009009 0 -0.085712)
(-0.057668 0 0.064047)
(-0.026632 0 -0.081966)
(-0.043092 0 0.074638)
(-0.043092 0 -0.074638)
(-0.026632 0 0.081966)
(-0.009009 0 0.085712)
(-0.057668 0 -0.064047)
(-0.069724 0 -0.050658)
(0.009009 0 0.085712)
(0.026632 0 0.081966)
(-0.078733 0 -0.035054)
(-0.084301 0 -0.017919)
(0.043092 0 0.074638)
(0.057668 0 0.064047)
(0.069724 0 0.050658)
(0.078733 0 0.035054)
(0.084301 0 0.017919)
(0.086184 0 0)
(0.084301 0 -0.017919)
)


// edges:

944
(
(480 481)
(482 480)
(483 484)
(484 485)
(486 482)
(487 486)
(485 488)
(488 489)
(490 491)
(492 493)
(493 494)
(494 495)
(496 490)
(491 497)
(497 498)
(499 487)
(500 499)
(495 501)
(501 502)
(503 496)
(489 504)
(504 505)
(502 506)
(506 507)
(508 500)
(509 508)
(505 510)
(507 511)
(511 512)
(513 509)
(514 513)
(515 516)
(512 517)
(517 518)
(519 514)
(520 519)
(521 520)
(522 521)
(523 515)
(524 523)
(518 525)
(525 503)
(526 522)
(527 526)
(528 527)
(529 492)
(516 529)
(530 524)
(531 530)
(510 532)
(532 528)
(533 531)
(534 533)
(535 534)
(536 535)
(498 537)
(538 536)
(481 538)
(537 539)
(539 483)
(540 541)
(542 543)
(541 544)
(543 545)
(544 546)
(545 547)
(546 548)
(547 549)
(548 550)
(549 551)
(550 552)
(552 553)
(551 554)
(554 555)
(553 556)
(555 557)
(556 558)
(558 559)
(557 560)
(560 561)
(559 562)
(561 563)
(562 564)
(563 565)
(564 566)
(566 542)
(565 567)
(567 568)
(568 569)
(569 570)
(570 571)
(571 540)
(572 573)
(573 574)
(575 576)
(577 575)
(578 579)
(579 580)
(581 578)
(574 582)
(582 583)
(584 577)
(585 584)
(586 581)
(587 588)
(589 587)
(590 589)
(583 586)
(591 585)
(592 591)
(593 590)
(594 593)
(595 594)
(596 595)
(597 592)
(598 596)
(599 598)
(580 600)
(601 602)
(603 599)
(604 603)
(600 605)
(605 606)
(606 607)
(607 608)
(608 609)
(609 610)
(602 611)
(611 612)
(610 613)
(588 614)
(615 604)
(616 615)
(614 601)
(617 597)
(612 618)
(618 619)
(620 616)
(621 620)
(613 617)
(619 622)
(622 623)
(624 621)
(625 624)
(623 626)
(626 627)
(628 625)
(629 628)
(627 630)
(630 572)
(631 629)
(576 631)
(632 633)
(634 635)
(633 636)
(635 637)
(636 638)
(637 639)
(638 640)
(639 641)
(640 642)
(641 643)
(642 644)
(644 645)
(643 646)
(645 647)
(646 648)
(647 649)
(648 650)
(649 651)
(650 652)
(651 653)
(652 654)
(653 655)
(655 634)
(654 656)
(656 657)
(657 658)
(658 659)
(659 660)
(660 661)
(661 662)
(662 663)
(663 632)
(664 665)
(665 666)
(667 668)
(669 670)
(671 664)
(672 671)
(673 674)
(675 672)
(676 675)
(677 678)
(678 679)
(680 681)
(682 683)
(684 682)
(685 686)
(687 688)
(689 690)
(691 692)
(666 689)
(692 667)
(670 693)
(693 673)
(674 694)
(668 669)
(679 695)
(695 696)
(694 697)
(697 676)
(696 698)
(698 699)
(681 700)
(700 677)
(699 701)
(701 702)
(702 703)
(703 704)
(683 680)
(704 705)
(705 685)
(688 684)
(690 687)
(686 691)
(706 707)
(708 709)
(707 710)
(710 711)
(711 712)
(713 714)
(715 713)
(716 708)
(714 717)
(718 719)
(720 715)
(719 721)
(722 718)
(721 723)
(724 716)
(717 725)
(726 722)
(727 720)
(723 728)
(725 729)
(730 724)
(731 726)
(732 727)
(729 733)
(728 734)
(735 730)
(736 731)
(734 737)
(738 736)
(739 732)
(733 740)
(741 735)
(737 742)
(743 744)
(744 745)
(746 738)
(742 747)
(712 743)
(745 748)
(749 746)
(748 741)
(747 750)
(751 739)
(752 751)
(740 753)
(753 754)
(750 755)
(754 756)
(757 752)
(756 758)
(759 757)
(758 760)
(761 762)
(762 763)
(764 761)
(765 759)
(766 749)
(763 767)
(768 764)
(769 766)
(767 770)
(771 768)
(772 769)
(773 765)
(774 773)
(770 775)
(776 771)
(777 774)
(778 772)
(775 779)
(780 776)
(781 777)
(782 778)
(783 781)
(779 784)
(760 783)
(785 786)
(787 785)
(786 788)
(789 780)
(755 787)
(788 782)
(709 789)
(784 706)
(790 791)
(792 793)
(794 790)
(795 796)
(797 794)
(798 799)
(800 801)
(802 803)
(804 805)
(805 806)
(807 808)
(809 810)
(811 812)
(812 813)
(814 792)
(793 795)
(815 797)
(796 800)
(799 815)
(801 802)
(816 798)
(803 807)
(806 816)
(817 811)
(818 804)
(810 819)
(813 809)
(820 814)
(808 817)
(819 818)
(791 821)
(821 820)
(822 823)
(823 824)
(824 825)
(825 826)
(827 828)
(829 827)
(830 831)
(832 830)
(831 833)
(834 829)
(835 832)
(833 836)
(837 834)
(838 835)
(836 839)
(840 838)
(839 841)
(842 837)
(843 840)
(841 844)
(845 846)
(847 843)
(826 845)
(844 848)
(846 849)
(850 847)
(849 851)
(848 852)
(851 842)
(852 853)
(853 854)
(855 856)
(857 850)
(856 858)
(859 855)
(860 857)
(858 861)
(862 859)
(863 860)
(861 864)
(865 862)
(866 863)
(864 867)
(868 865)
(869 866)
(867 870)
(871 868)
(870 872)
(873 874)
(874 875)
(854 873)
(876 871)
(875 877)
(877 869)
(878 876)
(872 822)
(828 878)
(5 4)
(879 880)
(880 881)
(881 882)
(882 883)
(883 884)
(884 885)
(885 886)
(886 887)
(887 888)
(888 889)
(889 890)
(890 891)
(891 892)
(892 893)
(893 894)
(894 895)
(895 896)
(896 897)
(897 898)
(898 899)
(899 900)
(900 901)
(901 902)
(902 903)
(903 904)
(904 905)
(905 906)
(906 907)
(907 908)
(908 879)
(909 910)
(910 911)
(911 912)
(913 914)
(912 915)
(914 916)
(915 917)
(916 918)
(917 919)
(918 920)
(919 921)
(920 922)
(921 923)
(922 924)
(924 925)
(923 926)
(926 927)
(925 928)
(928 929)
(927 930)
(930 931)
(931 913)
(929 932)
(932 933)
(933 934)
(934 935)
(935 936)
(936 937)
(937 938)
(938 909)
(6 7)
(8 9)
(10 11)
(12 6)
(11 13)
(14 12)
(15 16)
(17 15)
(18 8)
(13 19)
(16 20)
(21 17)
(22 14)
(20 23)
(24 21)
(19 25)
(23 26)
(27 28)
(29 24)
(30 27)
(26 31)
(32 29)
(28 33)
(33 34)
(35 18)
(25 36)
(37 32)
(31 38)
(34 35)
(39 37)
(38 40)
(40 41)
(41 42)
(36 43)
(44 45)
(42 46)
(45 47)
(48 22)
(49 44)
(47 50)
(51 48)
(52 49)
(46 53)
(54 51)
(50 55)
(43 56)
(57 58)
(59 52)
(60 39)
(58 61)
(55 62)
(63 54)
(64 57)
(65 60)
(66 59)
(61 67)
(68 63)
(62 69)
(70 64)
(71 65)
(67 72)
(73 66)
(74 75)
(56 74)
(76 70)
(72 77)
(78 71)
(79 68)
(69 80)
(81 73)
(82 76)
(77 83)
(84 78)
(75 79)
(53 85)
(86 81)
(85 87)
(88 82)
(89 86)
(87 90)
(80 91)
(90 84)
(92 88)
(83 93)
(91 94)
(93 95)
(96 92)
(94 97)
(95 98)
(97 99)
(9 96)
(100 101)
(99 100)
(101 102)
(103 89)
(104 105)
(102 106)
(107 104)
(98 108)
(106 109)
(110 103)
(109 110)
(105 111)
(112 107)
(111 113)
(108 30)
(7 112)
(113 10)
(114 115)
(116 117)
(115 118)
(119 120)
(121 116)
(122 123)
(123 124)
(118 0)
(125 122)
(124 126)
(127 125)
(128 121)
(126 129)
(130 131)
(132 127)
(133 134)
(131 135)
(129 136)
(134 137)
(138 132)
(135 139)
(140 133)
(136 141)
(137 142)
(0 143)
(144 138)
(139 145)
(146 140)
(142 1)
(145 119)
(147 144)
(148 146)
(141 149)
(1 150)
(151 148)
(149 152)
(150 153)
(152 154)
(143 155)
(155 156)
(154 157)
(158 159)
(160 151)
(161 158)
(157 162)
(163 128)
(159 164)
(153 165)
(166 161)
(164 167)
(168 163)
(169 166)
(167 170)
(171 147)
(172 173)
(174 168)
(156 175)
(176 160)
(177 169)
(165 178)
(179 172)
(170 180)
(173 181)
(182 171)
(183 174)
(184 177)
(178 185)
(186 179)
(187 182)
(181 188)
(180 189)
(190 183)
(175 191)
(192 176)
(193 186)
(185 194)
(195 184)
(196 187)
(188 197)
(189 198)
(199 193)
(197 200)
(194 201)
(202 195)
(203 196)
(191 204)
(205 199)
(206 2)
(2 192)
(207 203)
(201 208)
(200 209)
(210 202)
(162 211)
(211 212)
(212 213)
(3 206)
(204 190)
(214 205)
(213 207)
(198 215)
(216 3)
(217 214)
(215 218)
(218 219)
(220 216)
(209 221)
(219 222)
(223 224)
(224 220)
(221 225)
(222 226)
(208 223)
(4 217)
(226 227)
(228 210)
(227 229)
(229 230)
(231 232)
(233 228)
(230 234)
(232 235)
(234 233)
(225 236)
(237 231)
(235 238)
(239 237)
(238 240)
(236 241)
(242 239)
(240 114)
(241 130)
(120 5)
(117 242)
(243 244)
(245 246)
(247 243)
(246 248)
(249 250)
(251 252)
(253 247)
(248 254)
(252 255)
(256 249)
(257 253)
(254 258)
(255 259)
(259 260)
(261 256)
(262 257)
(258 263)
(260 264)
(265 261)
(263 266)
(267 262)
(268 265)
(266 269)
(270 267)
(264 271)
(0 268)
(269 251)
(250 270)
(271 272)
(273 0)
(272 274)
(275 273)
(274 276)
(277 275)
(276 278)
(279 277)
(280 279)
(278 281)
(282 280)
(281 283)
(284 282)
(283 285)
(286 284)
(285 287)
(288 286)
(287 289)
(290 288)
(289 291)
(292 290)
(291 293)
(294 292)
(293 295)
(244 294)
(295 245)
(296 297)
(298 299)
(300 296)
(299 301)
(302 303)
(304 305)
(306 300)
(301 307)
(305 308)
(309 302)
(310 306)
(307 311)
(308 312)
(312 313)
(314 309)
(315 310)
(311 316)
(313 317)
(318 314)
(316 319)
(320 315)
(321 318)
(319 322)
(323 320)
(317 324)
(325 321)
(322 304)
(303 323)
(324 326)
(327 325)
(326 328)
(329 327)
(328 330)
(331 329)
(330 332)